# ElementalMaterials Cd_HCP generated from the Mg.hP2 prototype (HEX) using a = 2.9787 A and c = 5.6166 A
data_Cd
_symmetry_space_group_name_H-M   'P 1'
_cell_length_a   2.97870011
_cell_length_b   2.97870011
_cell_length_c   5.61660000
_cell_angle_alpha   90.00000000
_cell_angle_beta   90.00000000
_cell_angle_gamma   120.00000250
_symmetry_Int_Tables_number   1
_chemical_formula_structural   Cd
_chemical_formula_sum   Cd2
_cell_volume   43.157639202
_cell_formula_units_Z   2
loop_
 _symmetry_equiv_pos_site_id
 _symmetry_equiv_pos_as_xyz
  1  'x, y, z'
loop_
 _atom_site_type_symbol
 _atom_site_label
 _atom_site_symmetry_multiplicity
 _atom_site_fract_x
 _atom_site_fract_y
 _atom_site_fract_z
 _atom_site_occupancy
  Cd  Cd1  1  0.000000  0.000000  0.000000  1
  Cd  Cd2  1  0.333333  0.666667  0.500000  1
