# ElementalMaterials Lu_HCP generated from the Mg.hP2 prototype (HEX) using a = 3.5098 A and c = 5.5666 A
data_Lu
_symmetry_space_group_name_H-M   'P 1'
_cell_length_a   3.50980003
_cell_length_b   3.50980003
_cell_length_c   5.56660000
_cell_angle_alpha   90.00000000
_cell_angle_beta   90.00000000
_cell_angle_gamma   120.00000062
_symmetry_Int_Tables_number   1
_chemical_formula_structural   Lu
_chemical_formula_sum   Lu2
_cell_volume   59.3861801825
_cell_formula_units_Z   2
loop_
 _symmetry_equiv_pos_site_id
 _symmetry_equiv_pos_as_xyz
  1  'x, y, z'
loop_
 _atom_site_type_symbol
 _atom_site_label
 _atom_site_symmetry_multiplicity
 _atom_site_fract_x
 _atom_site_fract_y
 _atom_site_fract_z
 _atom_site_occupancy
  Lu  Lu1  1  0.000000  0.000000  0.000000  1
  Lu  Lu2  1  0.333333  0.666667  0.500000  1
