# ElementalMaterials Tc_HCP generated from the Mg.hP2 prototype (HEX) using a = 2.7407 A and c = 4.3980 A
data_Tc
_symmetry_space_group_name_H-M   'P 1'
_cell_length_a   2.74070015
_cell_length_b   2.74070015
_cell_length_c   4.39800000
_cell_angle_alpha   90.00000000
_cell_angle_beta   90.00000000
_cell_angle_gamma   120.00000368
_symmetry_Int_Tables_number   1
_chemical_formula_structural   Tc
_chemical_formula_sum   Tc2
_cell_volume   28.6094091347
_cell_formula_units_Z   2
loop_
 _symmetry_equiv_pos_site_id
 _symmetry_equiv_pos_as_xyz
  1  'x, y, z'
loop_
 _atom_site_type_symbol
 _atom_site_label
 _atom_site_symmetry_multiplicity
 _atom_site_fract_x
 _atom_site_fract_y
 _atom_site_fract_z
 _atom_site_occupancy
  Tc  Tc1  1  0.000000  0.000000  0.000000  1
  Tc  Tc2  1  0.333333  0.666667  0.500000  1
