# ElementalMaterials Ti_HCP generated from the Mg.hP2 prototype (HEX) using a = 2.9508 A and c = 4.6855 A
data_Ti
_symmetry_space_group_name_H-M   'P 1'
_cell_length_a   2.95080021
_cell_length_b   2.95080021
_cell_length_c   4.68550000
_cell_angle_alpha   90.00000000
_cell_angle_beta   90.00000000
_cell_angle_gamma   120.00000463
_symmetry_Int_Tables_number   1
_chemical_formula_structural   Ti
_chemical_formula_sum   Ti2
_cell_volume   35.3318325926
_cell_formula_units_Z   2
loop_
 _symmetry_equiv_pos_site_id
 _symmetry_equiv_pos_as_xyz
  1  'x, y, z'
loop_
 _atom_site_type_symbol
 _atom_site_label
 _atom_site_symmetry_multiplicity
 _atom_site_fract_x
 _atom_site_fract_y
 _atom_site_fract_z
 _atom_site_occupancy
  Ti  Ti1  1  0.000000  0.000000  0.000000  1
  Ti  Ti2  1  0.333333  0.666667  0.500000  1
