# CompoundSemiconductors AlN_WUR generated from the ZnS.hP4 prototype (WUR) using a = N A and c = 3.110 A
data_AlN
_symmetry_space_group_name_H-M   'P 1'
_cell_length_a   3.11000000
_cell_length_b   3.11000000
_cell_length_c   4.98000000
_cell_angle_alpha   90.00000000
_cell_angle_beta   90.00000000
_cell_angle_gamma   119.99999989
_symmetry_Int_Tables_number   1
_chemical_formula_structural   AlN
_chemical_formula_sum   'Al2 N2'
_cell_volume   41.7138957642
_cell_formula_units_Z   2
loop_
 _symmetry_equiv_pos_site_id
 _symmetry_equiv_pos_as_xyz
  1  'x, y, z'
loop_
 _atom_site_type_symbol
 _atom_site_label
 _atom_site_symmetry_multiplicity
 _atom_site_fract_x
 _atom_site_fract_y
 _atom_site_fract_z
 _atom_site_occupancy
  Al  Al1  1  0.666667  0.333333  0.000000  1
  Al  Al2  1  0.333333  0.666667  0.500000  1
  N  N3  1  0.666667  0.333333  0.382000  1
  N  N4  1  0.333333  0.666667  0.882000  1
