# CompoundSemiconductors GaN_WUR generated from the ZnS.hP4 prototype (WUR) using a = N A and c = 3.190 A
data_GaN
_symmetry_space_group_name_H-M   'P 1'
_cell_length_a   3.18999997
_cell_length_b   3.18999997
_cell_length_c   5.18900000
_cell_angle_alpha   90.00000000
_cell_angle_beta   90.00000000
_cell_angle_gamma   119.99999932
_symmetry_Int_Tables_number   1
_chemical_formula_structural   GaN
_chemical_formula_sum   'Ga2 N2'
_cell_volume   45.7294167771
_cell_formula_units_Z   2
loop_
 _symmetry_equiv_pos_site_id
 _symmetry_equiv_pos_as_xyz
  1  'x, y, z'
loop_
 _atom_site_type_symbol
 _atom_site_label
 _atom_site_symmetry_multiplicity
 _atom_site_fract_x
 _atom_site_fract_y
 _atom_site_fract_z
 _atom_site_occupancy
  Ga  Ga1  1  0.666667  0.333333  0.000000  1
  Ga  Ga2  1  0.333333  0.666667  0.500000  1
  N  N3  1  0.666667  0.333333  0.377000  1
  N  N4  1  0.333333  0.666667  0.877000  1
