# CompoundSemiconductors InSb_ZB generated from the ZnS.cF8 prototype (ZB) using a = 6.4791 A
data_InSb
_symmetry_space_group_name_H-M   'P 1'
_cell_length_a   4.58141555
_cell_length_b   4.58141555
_cell_length_c   4.58141555
_cell_angle_alpha   60.00000000
_cell_angle_beta   60.00000000
_cell_angle_gamma   60.00000000
_symmetry_Int_Tables_number   1
_chemical_formula_structural   InSb
_chemical_formula_sum   'In1 Sb1'
_cell_volume   67.9961084164
_cell_formula_units_Z   1
loop_
 _symmetry_equiv_pos_site_id
 _symmetry_equiv_pos_as_xyz
  1  'x, y, z'
loop_
 _atom_site_type_symbol
 _atom_site_label
 _atom_site_symmetry_multiplicity
 _atom_site_fract_x
 _atom_site_fract_y
 _atom_site_fract_z
 _atom_site_occupancy
  In  In1  1  0.000000  0.000000  0.000000  1
  Sb  Sb2  1  0.250000  0.250000  0.250000  1
